# File generated by Flopy version 3.3.6 on 09/24/2023 at 12:12:00.
BEGIN options
END options

BEGIN dimensions
  MAXBOUND  9
END dimensions

BEGIN period  1
  1  5.00000007E-05
  2  5.00000007E-05
  3  5.00000007E-05
  5  5.00000007E-05
  6  5.00000007E-05
  7  5.00000007E-05
  8  5.00000007E-05
  99  5.00000007E-05
  10  5.00000007E-05
END period  1

BEGIN period  2
  1  2.47298196E-04
  2  2.47298196E-04
  3  2.47298196E-04
  5  2.47298196E-04
  6  2.47298196E-04
  7  2.47298196E-04
  8  2.47298196E-04
  99  2.47298196E-04
  10  2.47298196E-04
END period  2

