# File generated by Flopy version 3.7.0 on 09/10/2024 at 07:34:28.
BEGIN options
  OBS6  FILEIN  gauges_sfr.obs
  UNIT_CONVERSION   86400.00000000
END options

BEGIN dimensions
  NREACHES  5
END dimensions

BEGIN packagedata
  1  1      11.65600000       2.00000000  1.00000000E-04      13.87899970       0.40000000       5.10000000  0.0001  1       1.00000000  0
  2  2      12.95800000       2.00000000  1.00000000E-04      13.22299960       0.40000000       6.10000000  0.0001  2       1.00000000  0
  3  3      10.41260000       2.00000000  1.00000000E-04      13.24699970       0.40000000       7.10000000  0.0001  2       1.00000000  0
  4  4      11.48210000       2.00000000  1.00000000E-04      13.44900040       0.40000000       8.10000000  0.0001  2       1.00000000  0
  5  5      38.66220000       2.00000000  1.00000000E-04      23.92900090       0.40000000       9.10000000  0.0001  1       1.00000000  0
END packagedata

BEGIN connectiondata
  1  -2
  2  1  -3
  3  2  -4
  4  3  -5
  5  4
END connectiondata

BEGIN period  1
  1  STAGE  14.3789997
  1  STATUS  SIMPLE
  2  STAGE  13.7229996
  2  STATUS  SIMPLE
  3  STAGE  13.7469997
  3  STATUS  SIMPLE
  4  STAGE  13.9490004
  4  STATUS  SIMPLE
  5  STAGE  24.4290009
  5  STATUS  SIMPLE
  1  RUNOFF  1.385983943939209
  1  INFLOW  7.851403675973415
  2  RUNOFF  11.107270240783691
  2  INFLOW  0.0
  3  RUNOFF  18.010438919067383
  3  INFLOW  0.0
  4  RUNOFF  1.9239922761917114
  4  INFLOW  0.0
  5  RUNOFF  0.0
  5  INFLOW  0.0
END period  1

BEGIN period  2
  1  RUNOFF  0.16537266969680786
  1  INFLOW  0.9368128338828683
  2  RUNOFF  72.6005859375
  2  INFLOW  0.0
  3  RUNOFF  144.69955444335938
  3  INFLOW  0.0
  4  RUNOFF  0.22956667840480804
  4  INFLOW  0.0
  5  RUNOFF  0.0
  5  INFLOW  0.0
END period  2

