# File generated by Flopy version 3.3.6 on 09/24/2023 at 12:12:00.
BEGIN options
END options

BEGIN dimensions
  MAXBOUND  10
  NSEG  1
END dimensions

BEGIN period  1
  1      10.00000000       0.00000000       0.10000000    -999.00000000
  2      10.00000000       0.00000000       0.10000000    -999.00000000
  3      10.00000000       0.00000000       0.10000000    -999.00000000
  4      10.00000000       0.00000000       0.10000000    -999.00000000
  5      10.00000000       0.00000000       0.10000000    -999.00000000
  
  7      10.00000000       0.00000000       0.10000000    -999.00000000
  8      10.00000000       0.00000000       0.10000000    -999.00000000
  9      10.00000000       0.00000000       0.10000000    -999.00000000
  10      10.00000000       0.00000000       0.10000000    -999.00000000
END period  1

BEGIN period  2
  1      10.00000000       0.00168517       0.10000000    -999.00000000
  2      10.00000000       0.00168517       0.10000000    -999.00000000
  3      10.00000000       0.00168517       0.10000000    -999.00000000
  4      10.00000000       0.00168517       0.10000000    -999.00000000
  5      10.00000000       0.00168517       0.10000000    -999.00000000
  
  7      10.00000000       0.00168517       0.10000000    -999.00000000
  8      10.00000000       0.00168517       0.10000000    -999.00000000
  9      10.00000000       0.00168517       0.10000000    -999.00000000
  10      10.00000000       0.00168517       0.10000000    -999.00000000
END period  2

