# File generated by Flopy version 3.3.6 on 09/24/2023 at 13:29:56.
BEGIN options
END options

BEGIN dimensions
  MAXBOUND  9
END dimensions

BEGIN period  1
  1 1.67739689E-04
  2 1.67739689E-04
  3 1.67739689E-04
  5 1.67739689E-04
  6 1.67739689E-04
  7 1.67739689E-04
  8 1.67739689E-04
  99 1.67739689E-04
  10 1.67739689E-04
END period  1

BEGIN period  2
  1 2.97989070E-04
  2 2.97989070E-04
  3 2.97989070E-04
  5 2.97989070E-04
  6 2.97989070E-04
  7 2.97989070E-04
  8 2.97989070E-04
  99 2.97989070E-04
  10 2.97989070E-04
END period  2

